version 2
run General-0-20181001-23:39:27-673
attr configname General
attr datetime 20181001-23:39:27
attr experiment General
attr inifile omnetpp.ini
attr iterationvars ""
attr iterationvars2 $repetition=0
attr measurement ""
attr network Cloud_C
attr processid 673
attr repetition 0
attr replication #0
attr resultdir results
attr runnumber 0
attr seedset 0

